-------------------------------------------------------
          Amber 24 PMEMD                              2024
          -------------------------------------------------------

  [-O]verwriting output

File Assignments:

 Here is the input file:

Equilibration with pressure and temperature control
&cntrl
    imin=0,
    irest=0,
    nstlim=2500,
    dt=0.002,
    ntx=1,
    ntwr=100,
    ntwx=100,
    ntpr=50,
    tempi=100.0,
    temp0=300.0,
    ntt=1,
    tautp=2.0,
    ntb=1,
    ntp=0,
    ntc=2,
    ntf=2,
    nmropt=1,
    meld=1
/
&wt type='DUMPFREQ', istep1=25,
/
&wt type='END'
/
DISANG=nmr_res.rst
DUMPAVE=nmr_out.dat
/

Note: ig = -1. Setting random seed to   885360 based on wallclock time in
      microseconds.
MELD is enabled and using given NMR restraints

--------------------------------------------------------------------------------
   1.  RESOURCE   USE:
--------------------------------------------------------------------------------

 getting box info from netcdf restart file
 NATOM  =    1168 NTYPES =       9 NBONH =    1158 MBONA  =       9
 NTHETH =      25 MTHETA =      11 NPHIH =      43 MPHIA  =      24
 NHPARM =       0 NPARM  =       0 NNB   =    1627 NRES   =     385
 NBONA  =       9 NTHETA =      11 NPHIA =      24 NUMBND =      13
 NUMANG =      21 NPTRA  =      20 NATYP =      10 NPHB   =       0
 IFBOX  =       1 NMXRS  =      10 IFCAP =       0 NEXTRA =       0
 NCOPY  =       0

     BOX TYPE: RECTILINEAR

--------------------------------------------------------------------------------
   2.  CONTROL  DATA  FOR  THE  RUN
--------------------------------------------------------------------------------

ACE

General flags:
     imin    =       0, nmropt  =       1

MELD Options:
     MELD Status = 1

Nature and format of input:
     ntx     =       1, irest   =       0, ntrx    =       1

Nature and format of output:
     ntxo    =       2, ntpr    =      50, ntrx    =       1, ntwr    =     100
     iwrap   =       0, ntwx    =     100, ntwv    =       0, ntwe    =       0
     ioutfm  =       1, ntwprt  =       0, idecomp =       0, rbornstat=      0

Potential function:
     ntf     =       2, ntb     =       1, igb     =       0, nsnb    =      25
     ipol    =       0, gbsa    =       0, iesp    =       0
     dielc   =   1.00000, cut     =   8.00000, intdiel =   1.00000

Frozen or restrained atoms:
     ibelly  =       0, ntr     =       0

Molecular dynamics:
     nstlim  =      2500, nscm    =      1000, nrespa  =         1
     t       =   0.00000, dt      =   0.00200, vlimit  =  20.00000

Berendsen (weak-coupling) temperature regulation:
     temp0   = 300.00000, tempi   = 100.00000, tautp   =   2.00000

SHAKE:
     ntc     =       2, jfastw  =       0
     tol     =   0.00001

NMR refinement options:
     iscale  =       0, noeskp  =       1, ipnlty  =       1, mxsub   =       1
     scalm   = 100.00000, pencut  =   0.10000, tausw   =   0.10000

Ewald parameters:
     verbose =       0, ew_type =       0, nbflag  =       1, use_pme =       1
     vdwmeth =       1, eedmeth =       1, netfrc  =       1
     Box X =   27.188   Box Y =   29.718   Box Z =   25.397
     Alpha =   90.000   Beta  =   90.000   Gamma =   90.000
     NFFT1 =   30       NFFT2 =   30       NFFT3 =   27
     Cutoff=    8.000   Tol   =0.100E-04
     Ewald Coefficient =  0.34864
     Interpolation order =    4

--------------------------------------------------------------------------------
   3.  ATOMIC COORDINATES AND VELOCITIES
--------------------------------------------------------------------------------

ACE
 begin time read from input coords =     5.000 ps

           Begin reading energy term weight changes/NMR restraints
 WEIGHT CHANGES:
 DUMPFREQ     25      0    0.000000    0.000000      0      0
                         ** No weight changes given **

 RESTRAINTS:
 Requested file redirections:
  DISANG    = nmr_res.rst
  DUMPAVE   = nmr_out.dat
 Restraints will be read from file: nmr_res.rst
Here are comments from the DISANG input file:

                       Number of restraints read =     5

                  Done reading weight changes/NMR restraints

 Number of triangulated 3-point waters found:      382

     Sum of charges from parm topology file =  -0.00000000
     Forcing neutrality...

--------------------------------------------------------------------------------
   4.  RESULTS
 NSTEP =        0   TIME(PS) =       0.000  TEMP(K) =   148.03  PRESS =     0.0
 Etot   =     -3154.7509  EKtot   =       344.6158  EPtot      =     -3499.3667
 BOND   =         2.4173  ANGLE   =         5.9687  DIHED      =        10.3603
 1-4 NB =         3.2411  1-4 EEL =        46.9022  VDWAALS    =       632.2647
 EELEC  =     -4456.1907  EHBOND  =         0.0000  RESTRAINT  =       255.6697
 EAMBER (non-restraint)  =     -3755.0364
 Ewald error estimate:   0.7058E-04
 ------------------------------------------------------------------------------

      A V E R A G E S   O V E R      50 S T E P S

 NSTEP =     2500   TIME(PS) =       5.000  TEMP(K) =   248.47  PRESS =     0.0
 Etot   =     -3110.8197  EKtot   =       578.4416  EPtot      =     -3689.2613
 BOND   =        10.3286  ANGLE   =        35.4227  DIHED      =        19.4733
 1-4 NB =         3.1283  1-4 EEL =        42.7101  VDWAALS    =       637.9030
 EELEC  =     -4443.1879  EHBOND  =         0.0000  RESTRAINT  =         4.9605
 EAMBER (non-restraint)  =     -3694.2218
 Ewald error estimate:   0.2203E-03
 ------------------------------------------------------------------------------

      R M S  F L U C T U A T I O N S

 NSTEP =     2500   TIME(PS) =       5.000  TEMP(K) =    14.13  PRESS =     0.0
 Etot   =        85.6094  EKtot   =        32.8967  EPtot      =        59.3975
 BOND   =         5.4932  ANGLE   =        11.7078  DIHED      =         4.8427
 1-4 NB =         1.1108  1-4 EEL =         3.1658  VDWAALS    =        40.9930
 EELEC  =       107.5612  EHBOND  =         0.0000  RESTRAINT  =         3.1946
 EAMBER (non-restraint)  =        56.2029
 Ewald error estimate:   0.1616E-03
 ------------------------------------------------------------------------------
