-------------------------------------------------------
          Amber 9  SANDER                 Scripps/UCSF 2004
          -------------------------------------------------------

  [-O]verwriting output

File Assignments:

 Here is the input file:

DB3 antibody
 &cntrl
        imin = 0, ntx = 5, nstlim = 10000,
        ntc = 2, ntf = 1, tol = 0.0000001, ntt = 1, dt = 0.001,
        ntb = 2, ntp = 1, tautp = 0.5, taup = 2.0,
        ntwx = 100, ntwe = 0, ntwr = 1000, ntpr = 100,
        scee = 1.2, cut = 10, npscal = 1,
        ntr = 0, temp0 = 300.0, iwrap = 0, tempi = 100.0,
        nscm = 1000, irest = 1, vrand = 0, nmropt = 1,
 &end
 &wt
        TYPE = "END",
 &end
DISANG=disang.rst
LISTIN=POUT
LISTOUT=POUT

--------------------------------------------------------------------------------
   1.  RESOURCE   USE:
--------------------------------------------------------------------------------

 getting new box info from bottom of inpcrd
 NATOM  =   11307 NTYPES =       2 NBONH =   11307 MBONA  =       0
 NTHETH =       0 MTHETA =       0 NPHIH =       0 MPHIA  =       0
 NHPARM =       0 NPARM  =       0 NNB   =   15076 NRES   =    3769
 NBONA  =       0 NTHETA =       0 NPHIA =       0 NUMBND =       2
 NUMANG =       0 NPTRA  =       0 NATYP =       2 NPHB   =       1
 IFBOX  =       2 NMXRS  =       3 IFCAP =       0 NEXTRA =       0
 NCOPY  =       0

     BOX TYPE: TRUNCATED OCTAHEDRON

--------------------------------------------------------------------------------
   2.  CONTROL  DATA  FOR  THE  RUN
--------------------------------------------------------------------------------

TP3

General flags:
     imin    =       0, nmropt  =       1

Nature and format of input:
     ntx     =       5, irest   =       1, ntrx    =       1

Nature and format of output:
     ntxo    =       1, ntpr    =     100, ntrx    =       1, ntwr    =    1000
     iwrap   =       0, ntwx    =     100, ntwv    =       0, ntwe    =       0
     ioutfm  =       0, ntwprt  =       0, idecomp =       0, rbornstat=      0

Potential function:
     ntf     =       1, ntb     =       2, igb     =       0, nsnb    =      25
     ipol    =       0, gbsa    =       0, iesp    =       0
     dielc   =   1.00000, cut     =  10.00000, intdiel =   1.00000
     scnb    =   2.00000, scee    =   1.20000

Frozen or restrained atoms:
     ibelly  =       0, ntr     =       0

Molecular dynamics:
     nstlim  =     10000, nscm    =      1000, nrespa  =         1
     t       =   0.00000, dt      =   0.00100, vlimit  =  20.00000

Berendsen (weak-coupling) temperature regulation:
     temp0   = 300.00000, tempi   = 100.00000, tautp   =   0.50000

Pressure regulation:
     ntp     =       1
     pres0   =   1.00000, comp    =  44.60000, taup    =   2.00000

SHAKE:
     ntc     =       2, jfastw  =       0
     tol     =   0.00000

NMR refinement options:
     iscale  =       0, noeskp  =       1, ipnlty  =       1, mxsub   =       1
     scalm   = 100.00000, pencut  =   0.10000, tausw   =   0.10000

Ewald parameters:
     verbose =       0, ew_type =       0, nbflag  =       1, use_pme =       1
     vdwmeth =       1, eedmeth =       1, netfrc  =       1
     Box X =   53.057   Box Y =   53.057   Box Z =   53.057
     Alpha =  109.471   Beta  =  109.471   Gamma =  109.471
     NFFT1 =   54       NFFT2 =   54       NFFT3 =   54
     Cutoff=   10.000   Tol   =0.100E-04
     Ewald Coefficient =  0.27511
     Interpolation order =    4

--------------------------------------------------------------------------------
   3.  ATOMIC COORDINATES AND VELOCITIES
--------------------------------------------------------------------------------

TP3
 begin time read from input coords =   550.000 ps

           Begin reading energy term weight changes/NMR restraints
 WEIGHT CHANGES:
                         ** No weight changes given **

 RESTRAINTS:
 Requested file redirections:
  DISANG    = disang.rst
  LISTIN    = POUT
  LISTOUT   = POUT
 Restraints will be read from file: disang.rst
Here are comments from the DISANG input file:

******
 H2  (   48)-O   (   19)                            NSTEP1=     1 NSTEP2=500000
R1 =   0.000 R2 =  10.000 R3 =  10.000 R4 =1000.000 RK2 =   0.000 RK3 =    0.000
 Rcurr:   30.351  Rcurr-(R2+R3)/2:   20.351  MIN(Rcurr-R2,Rcurr-R3):   20.351
                       Number of restraints read =     1

                  Done reading weight changes/NMR restraints

 Number of triangulated 3-point waters found:     3769

     Sum of charges from parm topology file =   0.00000000
     Forcing neutrality...

--------------------------------------------------------------------------------
   4.  RESULTS
 NSTEP =      100   TIME(PS) =     550.100  TEMP(K) =   300.52  PRESS =  -253.8
 Etot   =    -29208.5384  EKtot   =      6751.6491  EPtot      =    -35960.1875
 BOND   =         0.0000  ANGLE   =         0.0000  DIHED      =         0.0000
 1-4 NB =         0.0000  1-4 EEL =         0.0000  VDWAALS    =      5260.7966
 EELEC  =    -41220.9840  EHBOND  =         0.0000  RESTRAINT  =         0.0000
 EKCMT  =      3407.6614  VIRIAL  =      4037.4299  VOLUME     =    114935.6510
                                                    Density    =         0.9810
 Ewald error estimate:   0.1163E-03
 ------------------------------------------------------------------------------

      A V E R A G E S   O V E R   10000 S T E P S

 NSTEP =    10000   TIME(PS) =     560.000  TEMP(K) =   300.09  PRESS =   -16.2
 Etot   =    -29243.8317  EKtot   =      6741.9670  EPtot      =    -35985.7987
 BOND   =         0.0000  ANGLE   =         0.0000  DIHED      =         0.0000
 1-4 NB =         0.0000  1-4 EEL =         0.0000  VDWAALS    =      5388.7478
 EELEC  =    -41374.5465  EHBOND  =         0.0000  RESTRAINT  =         0.0000
 EKCMT  =      3385.9462  VIRIAL  =      3425.9806  VOLUME     =    114774.1434
                                                    Density    =         0.9824
 Ewald error estimate:   0.1120E-03
 ------------------------------------------------------------------------------

      R M S  F L U C T U A T I O N S

 NSTEP =    10000   TIME(PS) =     560.000  TEMP(K) =     2.14  PRESS =   163.7
 Etot   =        17.4251  EKtot   =        48.1700  EPtot      =        51.0067
 BOND   =         0.0000  ANGLE   =         0.0000  DIHED      =         0.0000
 1-4 NB =         0.0000  1-4 EEL =         0.0000  VDWAALS    =        83.5457
 EELEC  =       103.4413  EHBOND  =         0.0000  RESTRAINT  =         0.0000
 EKCMT  =        42.1333  VIRIAL  =       407.8487  VOLUME     =       136.0161
                                                    Density    =         0.0012
 Ewald error estimate:   0.8521E-04
 ------------------------------------------------------------------------------
